/*--------------------------------*- C++ -*----------------------------------*\
| =========                 |                                                 |
| \\      /  F ield         | OpenFOAM: The Open Source CFD Toolbox           |
|  \\    /   O peration     | Version:  v2112                                 |
|   \\  /    A nd           | Website:  www.openfoam.com                      |
|    \\/     M anipulation  |                                                 |
\*---------------------------------------------------------------------------*/
FoamFile
{
    version     2.0;
    format      ascii;
    class       dictionary;
    object      MRFProperties;
}
// * * * * * * * * * * * * * * * * * * * * * * * * * * * * * * * * * * * * * //

#include "$FOAM_CASE/system/initialConditions"

zoneMRF
{
    cellZone    region1;
    active      yes;

    // Fixed patches (by default they 'move' with the MRF zone)
    nonRotatingPatches (AMI1 AMI2); 

    origin    ( 0 0 0);
    axis      (-1 0 0);
    omega     constant $rotating_speed_rads;
}



// ************************************************************************* //